688447
  -OEChem-03302205083D

 31 32  0     1  0  0  0  0  0999 V2000
    3.9575   -1.1263    1.9707 O   0  0  0  0  0  0  0  0  0  0  0  0
    0.5571    0.3868   -0.6707 N   0  0  0  0  0  0  0  0  0  0  0  0
   -1.6806   -1.7236   -0.5712 N   0  0  0  0  0  0  0  0  0  0  0  0
   -1.1477    1.8340    0.1937 N   0  0  0  0  0  0  0  0  0  0  0  0
   -3.7538   -1.3069    0.1333 N   0  0  0  0  0  0  0  0  0  0  0  0
   -3.4125    1.0457    0.6422 N   0  0  0  0  0  0  0  0  0  0  0  0
    3.4413   -0.3441   -0.2753 C   0  0  2  0  0  0  0  0  0  0  0  0
    2.9178    0.8217   -1.1428 C   0  0  0  0  0  0  0  0  0  0  0  0
    1.5771    1.4068   -0.7012 C   0  0  0  0  0  0  0  0  0  0  0  0
    3.5289   -0.0006    1.2176 C   0  0  0  0  0  0  0  0  0  0  0  0
    4.8138   -0.7837   -0.8003 C   0  0  0  0  0  0  0  0  0  0  0  0
   -0.7415    0.6089   -0.2395 C   0  0  0  0  0  0  0  0  0  0  0  0
   -1.6961   -0.4023   -0.2256 C   0  0  0  0  0  0  0  0  0  0  0  0
   -2.9938   -0.1677    0.2087 C   0  0  0  0  0  0  0  0  0  0  0  0
   -2.9351   -2.2225   -0.3388 C   0  0  0  0  0  0  0  0  0  0  0  0
   -2.4323    1.9737    0.5994 C   0  0  0  0  0  0  0  0  0  0  0  0
    2.7751   -1.2089   -0.3869 H   0  0  0  0  0  0  0  0  0  0  0  0
    2.8277    0.4733   -2.1803 H   0  0  0  0  0  0  0  0  0  0  0  0
    3.6586    1.6315   -1.1501 H   0  0  0  0  0  0  0  0  0  0  0  0
    1.2871    2.1924   -1.4093 H   0  0  0  0  0  0  0  0  0  0  0  0
    1.6765    1.8828    0.2806 H   0  0  0  0  0  0  0  0  0  0  0  0
    4.2335    0.8207    1.3876 H   0  0  0  0  0  0  0  0  0  0  0  0
    2.5520    0.2933    1.6113 H   0  0  0  0  0  0  0  0  0  0  0  0
    5.1791   -1.6670   -0.2664 H   0  0  0  0  0  0  0  0  0  0  0  0
    5.5566    0.0132   -0.6853 H   0  0  0  0  0  0  0  0  0  0  0  0
    4.7578   -1.0435   -1.8629 H   0  0  0  0  0  0  0  0  0  0  0  0
    0.7752   -0.5358   -1.0296 H   0  0  0  0  0  0  0  0  0  0  0  0
   -0.8905   -2.2418   -0.9323 H   0  0  0  0  0  0  0  0  0  0  0  0
    3.9985   -0.8488    2.9018 H   0  0  0  0  0  0  0  0  0  0  0  0
   -3.1831   -3.2560   -0.5342 H   0  0  0  0  0  0  0  0  0  0  0  0
   -2.7107    2.9666    0.9359 H   0  0  0  0  0  0  0  0  0  0  0  0
  1 10  1  0  0  0  0
  1 29  1  0  0  0  0
  2  9  1  0  0  0  0
  2 12  1  0  0  0  0
  2 27  1  0  0  0  0
  3 13  1  0  0  0  0
  3 15  1  0  0  0  0
  3 28  1  0  0  0  0
  4 12  2  0  0  0  0
  4 16  1  0  0  0  0
  5 14  1  0  0  0  0
  5 15  2  0  0  0  0
  6 14  1  0  0  0  0
  6 16  2  0  0  0  0
  7  8  1  0  0  0  0
  7 10  1  0  0  0  0
  7 11  1  0  0  0  0
  7 17  1  0  0  0  0
  8  9  1  0  0  0  0
  8 18  1  0  0  0  0
  8 19  1  0  0  0  0
  9 20  1  0  0  0  0
  9 21  1  0  0  0  0
 10 22  1  0  0  0  0
 10 23  1  0  0  0  0
 11 24  1  0  0  0  0
 11 25  1  0  0  0  0
 11 26  1  0  0  0  0
 12 13  1  0  0  0  0
 13 14  2  0  0  0  0
 15 30  1  0  0  0  0
 16 31  1  0  0  0  0
M  END
> <PUBCHEM_COMPOUND_CID>
688447

> <PUBCHEM_CONFORMER_RMSD>
0.6

> <PUBCHEM_CONFORMER_DIVERSEORDER>
1
105
32
58
70
87
65
8
83
18
59
106
76
104
15
60
111
42
40
66
81
2
102
99
45
96
82
16
80
72
19
95
91
101
14
89
38
23
74
61
29
49
84
86
13
43
67
17
56
97
94
108
24
5
4
68
27
25
52
110
75
90
26
85
77
3
53
37
20
46
47
69
48
11
44
41
71
93
9
109
7
103
63
31
50
88
100
28
6
62
98
36
39
12
30
107
54
21
78
33
10
64
22
92
55
35
51
57
79
34
73

> <PUBCHEM_MMFF94_PARTIAL_CHARGES>
18
1 -0.68
10 0.28
12 0.41
13 -0.15
14 0.48
15 0.04
16 0.47
2 -0.87
27 0.4
28 0.27
29 0.4
3 0.03
30 0.15
31 0.15
4 -0.62
5 -0.57
6 -0.57
9 0.37

> <PUBCHEM_EFFECTIVE_ROTOR_COUNT>
5

> <PUBCHEM_PHARMACOPHORE_FEATURES>
10
1 1 acceptor
1 1 donor
1 11 hydrophobe
1 2 donor
1 3 donor
3 2 4 12 cation
3 3 5 15 cation
3 4 6 16 cation
5 3 5 13 14 15 rings
6 4 6 12 13 14 16 rings

> <PUBCHEM_HEAVY_ATOM_COUNT>
16

> <PUBCHEM_ATOM_DEF_STEREO_COUNT>
1

> <PUBCHEM_ATOM_UDEF_STEREO_COUNT>
0

> <PUBCHEM_BOND_DEF_STEREO_COUNT>
0

> <PUBCHEM_BOND_UDEF_STEREO_COUNT>
0

> <PUBCHEM_ISOTOPIC_ATOM_COUNT>
0

> <PUBCHEM_COMPONENT_COUNT>
1

> <PUBCHEM_CACTVS_TAUTO_COUNT>
8

> <PUBCHEM_CONFORMER_ID>
000A813F00000001

> <PUBCHEM_MMFF94_ENERGY>
27.9269

> <PUBCHEM_FEATURE_SELFOVERLAP>
50.987

> <PUBCHEM_SHAPE_FINGERPRINT>
10062212 137 18334574650818801659
10616163 171 18412553110667163598
11137873 295 16370714899075754058
11578080 2 17970321875870029244
12346177 29 18342449327152959213
12410352 35 18260821618382898378
12500047 106 18200314295231491572
12553582 1 17748827393548197096
12824470 246 18042403706597610195
13862211 1 18271813484135442855
14178342 30 18339919308253760850
14420673 8 18053675668236636470
15042514 8 18340781415975681131
15239191 94 18113336418677850394
15375462 189 17895197675714700992
15653759 3 17704071789777026016
15669948 3 18341904042357841309
17804303 29 18272378567890797868
17834072 33 18336558196119099188
19422 9 18335148621621264540
20281475 54 18260828172892960022
20291156 8 18333449850523638172
20442098 301 18411136931263728830
21065199 12 17988922275890901064
212916 134 17985262980676661417
21650355 55 18343300379444754753
22169311 14 17775566408160320004
2255824 54 17749962175574216748
22646028 28 18334013917100082118
22959321 94 18410854390713070546
23366157 5 17974851975772565453
23402539 116 18131069329869253581
23557571 272 17846506919495195799
23559900 14 18202289099983282060
23598291 2 18114760299142244156
2838139 119 14188748312256808243
33382 64 17024320828123120867
5706482 22 18270966739574408425
573450 72 18410293605401969961
58051976 100 18186803565121650085
5902787 121 18342740762196077000
90316 7 18408886209218400573

> <PUBCHEM_SHAPE_MULTIPOLES>
298.5
8.82
2.01
1.16
6.47
0.11
-0.43
2.97
-1.19
-1.95
0.02
1.52
0.13
-1.02

> <PUBCHEM_SHAPE_SELFOVERLAP>
621.866

> <PUBCHEM_SHAPE_VOLUME>
167.6

> <PUBCHEM_COORDINATE_TYPE>
2
5
10

$$$$
